/*--------------------------------*- C++ -*----------------------------------*\
| =========                 |                                                 |
| \\      /  F ield         | OpenFOAM: The Open Source CFD Toolbox           |
|  \\    /   O peration     | Version:  2.3.0                                 |
|   \\  /    A nd           | Web:      www.OpenFOAM.org                      |
|    \\/     M anipulation  |                                                 |
\*---------------------------------------------------------------------------*/
FoamFile
{
    version     2.0;
    format      binary;
    class       polyBoundaryMesh;
    location    "constant/polyMesh";
    object      boundary;
}
// * * * * * * * * * * * * * * * * * * * * * * * * * * * * * * * * * * * * * //

6
(
    topAndBottom
    {
        type            patch;
        nFaces          240;
        startFace       132361;
    }
    inlet
    {
        type            patch;
        nFaces          120;
        startFace       132601;
    }
    outlet
    {
        type            patch;
        nFaces          120;
        startFace       132721;
    }
    wing
    {
        type            wall;
        inGroups        1(wall);
        nFaces          252;
        startFace       132841;
    }
    front
    {
        type            empty;
        inGroups        1(empty);
        nFaces          66103;
        startFace       133093;
    }
    back
    {
        type            empty;
        inGroups        1(empty);
        nFaces          66103;
        startFace       199196;
    }
)

// ************************************************************************* //
