/*--------------------------------*- C++ -*----------------------------------*\
| =========                 |                                                 |
| \\      /  F ield         | OpenFOAM: The Open Source CFD Toolbox           |
|  \\    /   O peration     | Version:  2.3.0                                 |
|   \\  /    A nd           | Web:      www.OpenFOAM.org                      |
|    \\/     M anipulation  |                                                 |
\*---------------------------------------------------------------------------*/
FoamFile
{
    version     2.0;
    format      binary;
    class       polyBoundaryMesh;
    location    "constant/polyMesh";
    object      boundary;
}
// * * * * * * * * * * * * * * * * * * * * * * * * * * * * * * * * * * * * * //

6
(
    topAndBottom
    {
        type            patch;
        nFaces          160;
        startFace       157110;
    }
    inlet
    {
        type            patch;
        nFaces          182;
        startFace       157270;
    }
    outlet
    {
        type            patch;
        nFaces          182;
        startFace       157452;
    }
    wing
    {
        type            wall;
        inGroups        1(wall);
        nFaces          168;
        startFace       157634;
    }
    front
    {
        type            empty;
        inGroups        1(empty);
        nFaces          78407;
        startFace       157802;
    }
    back
    {
        type            empty;
        inGroups        1(empty);
        nFaces          78407;
        startFace       236209;
    }
)

// ************************************************************************* //
