/*--------------------------------*- C++ -*----------------------------------*\
| =========                 |                                                 |
| \\      /  F ield         | OpenFOAM: The Open Source CFD Toolbox           |
|  \\    /   O peration     | Version:  2.3.0                                 |
|   \\  /    A nd           | Web:      www.OpenFOAM.org                      |
|    \\/     M anipulation  |                                                 |
\*---------------------------------------------------------------------------*/
FoamFile
{
    version     2.0;
    format      ascii;
    class       polyBoundaryMesh;
    location    "constant/polyMesh";
    object      boundary;
}
// * * * * * * * * * * * * * * * * * * * * * * * * * * * * * * * * * * * * * //

6
(
    topAndBottom
    {
        type            patch;
        nFaces          72;
        startFace       69528;
    }
    inlet
    {
        type            patch;
        nFaces          192;
        startFace       69600;
    }
    outlet
    {
        type            patch;
        nFaces          192;
        startFace       69792;
    }
    symFront
    {
        type            symmetryPlane;
        inGroups        1(symmetryPlane);
        nFaces          7008;
        startFace       69984;
    }
    symBack
    {
        type            symmetryPlane;
        inGroups        1(symmetryPlane);
        nFaces          7008;
        startFace       76992;
    }
    wing
    {
        type            wall;
        inGroups        1(wall);
        nFaces          168;
        startFace       84000;
    }
)

// ************************************************************************* //
