/*--------------------------------*- C++ -*----------------------------------*\
| =========                 |                                                 |
| \\      /  F ield         | OpenFOAM: The Open Source CFD Toolbox           |
|  \\    /   O peration     | Version:  2.3.0                                 |
|   \\  /    A nd           | Web:      www.OpenFOAM.org                      |
|    \\/     M anipulation  |                                                 |
\*---------------------------------------------------------------------------*/
FoamFile
{
    version     2.0;
    format      ascii;
    class       polyBoundaryMesh;
    location    "constant/polyMesh";
    object      boundary;
}
// * * * * * * * * * * * * * * * * * * * * * * * * * * * * * * * * * * * * * //

6
(
    outlet12
    {
        type            patch;
        nFaces          130;
        startFace       269186;
    }
    inlet
    {
        type            patch;
        nFaces          50;
        startFace       269316;
    }
    outlet
    {
        type            patch;
        nFaces          50;
        startFace       269366;
    }
    symFront
    {
        type            symmetryPlane;
        inGroups        1(symmetryPlane);
        nFaces          10083;
        startFace       269416;
    }
    symBack
    {
        type            symmetryPlane;
        inGroups        1(symmetryPlane);
        nFaces          10083;
        startFace       279499;
    }
    wing
    {
        type            wall;
        inGroups        1(wall);
        nFaces          13248;
        startFace       289582;
    }
)

// ************************************************************************* //
