/*--------------------------------*- C++ -*----------------------------------*\
| =========                 |                                                 |
| \\      /  F ield         | OpenFOAM: The Open Source CFD Toolbox           |
|  \\    /   O peration     | Version:  2.3.0                                 |
|   \\  /    A nd           | Web:      www.OpenFOAM.org                      |
|    \\/     M anipulation  |                                                 |
\*---------------------------------------------------------------------------*/
FoamFile
{
    version     2.0;
    format      ascii;
    class       polyBoundaryMesh;
    location    "constant/polyMesh";
    object      boundary;
}
// * * * * * * * * * * * * * * * * * * * * * * * * * * * * * * * * * * * * * //

6
(
    topAndBottom
    {
        type            patch;
        nFaces          240;
        startFace       1398230;
    }
    inlet
    {
        type            patch;
        nFaces          120;
        startFace       1398470;
    }
    outlet
    {
        type            patch;
        nFaces          120;
        startFace       1398590;
    }
    symFront
    {
        type            symmetryPlane;
        inGroups        1(symmetryPlane);
        nFaces          66103;
        startFace       1398710;
    }
    symBack
    {
        type            symmetryPlane;
        inGroups        1(symmetryPlane);
        nFaces          66103;
        startFace       1464813;
    }
    wing
    {
        type            wall;
        inGroups        1(wall);
        nFaces          8064;
        startFace       1530916;
    }
)

// ************************************************************************* //
