/*--------------------------------*- C++ -*----------------------------------*\
| =========                 |                                                 |
| \\      /  F ield         | OpenFOAM: The Open Source CFD Toolbox           |
|  \\    /   O peration     | Version:  2.3.0                                 |
|   \\  /    A nd           | Web:      www.OpenFOAM.org                      |
|    \\/     M anipulation  |                                                 |
\*---------------------------------------------------------------------------*/
FoamFile
{
    version     2.0;
    format      ascii;
    class       polyBoundaryMesh;
    location    "constant/polyMesh";
    object      boundary;
}
// * * * * * * * * * * * * * * * * * * * * * * * * * * * * * * * * * * * * * //

6
(
    topAndBottom
    {
        type            patch;
        nFaces          120;
        startFace       901118;
    }
    inlet
    {
        type            patch;
        nFaces          60;
        startFace       901238;
    }
    outlet
    {
        type            patch;
        nFaces          60;
        startFace       901298;
    }
    symFront
    {
        type            symmetryPlane;
        inGroups        1(symmetryPlane);
        nFaces          29356;
        startFace       901358;
    }
    symBack
    {
        type            symmetryPlane;
        inGroups        1(symmetryPlane);
        nFaces          29356;
        startFace       930714;
    }
    wing
    {
        type            wall;
        inGroups        1(wall);
        nFaces          13824;
        startFace       960070;
    }
)

// ************************************************************************* //
