/*--------------------------------*- C++ -*----------------------------------*\
| =========                 |                                                 |
| \\      /  F ield         | OpenFOAM: The Open Source CFD Toolbox           |
|  \\    /   O peration     | Version:  2.3.x                                 |
|   \\  /    A nd           | Web:      www.OpenFOAM.org                      |
|    \\/     M anipulation  |                                                 |
\*---------------------------------------------------------------------------*/
FoamFile
{
    version     2.0;
    format      ascii;
    class       polyBoundaryMesh;
    location    "constant/polyMesh";
    object      boundary;
}
// * * * * * * * * * * * * * * * * * * * * * * * * * * * * * * * * * * * * * //

6
(
    topAndBottom
    {
        type            patch;
        nFaces          160;
        startFace       1701801;
    }
    inlet
    {
        type            patch;
        nFaces          962;
        startFace       1701961;
    }
    outlet
    {
        type            patch;
        nFaces          962;
        startFace       1702923;
    }
    symFront
    {
        type            symmetryPlane;
        inGroups        1(symmetryPlane);
        nFaces          77765;
        startFace       1703885;
    }
    symBack
    {
        type            symmetryPlane;
        inGroups        1(symmetryPlane);
        nFaces          77765;
        startFace       1781650;
    }
    wing
    {
        type            wall;
        inGroups        1(wall);
        nFaces          2688;
        startFace       1859415;
    }
)

// ************************************************************************* //
