/*--------------------------------*- C++ -*----------------------------------*\
| =========                 |                                                 |
| \\      /  F ield         | OpenFOAM: The Open Source CFD Toolbox           |
|  \\    /   O peration     | Version:  2.3.0                                 |
|   \\  /    A nd           | Web:      www.OpenFOAM.org                      |
|    \\/     M anipulation  |                                                 |
\*---------------------------------------------------------------------------*/
FoamFile
{
    version     2.0;
    format      ascii;
    class       dictionary;
    location    "system";
    object      controlDict;
}
// * * * * * * * * * * * * * * * * * * * * * * * * * * * * * * * * * * * * * //

libs
(
     "libOpenFOAM.so"
     "libincompressibleTurbulenceModel.so"
     "libincompressibleRASModels.so"
);

application     pimpleDyMFoam;

startFrom       startTime;

startTime       0;

stopAt          endTime;

endTime         0.8;

deltaT          1e-10;

writeControl    adjustableRunTime;

writeInterval   0.004;

purgeWrite      0;

writeFormat     binary;

writePrecision  10;

writeCompression on;

timeFormat      general;

timePrecision   6;

runTimeModifiable true;

adjustTimeStep  yes;

maxCo           0.9;

functions 
{
//#include "forceCoeffs"
}
// ************************************************************************* //
